Circuit: * Z:\mnt\82849C02849BF73F\PWR\I\praca inzynierska\420-transmitter\420-transmitter\Simulation\420-transmitter.asc

Error on line 9 : d4 -vcc 0 ph_bzx84c3v3
	 Unable to find definition of model "ph_bzx84c3v3"
Error on line 48 : d8 n001 +vcc ph_bzx84c3v3
	 Unable to find definition of model "ph_bzx84c3v3"
Error on line 49 : d1 n016 +vcc ph_bzx84c3v3
	 Unable to find definition of model "ph_bzx84c3v3"
WARNING: Node NC_02 is floating.

WARNING: Less than two connections to node NC_01.  This node is used by V2.
WARNING: Less than two connections to node NC_02.  This node is used by V2.
WARNING: Less than two connections to node +5V.  This node is used by V1.
Direct Newton iteration failed to find .op point.  (Use ".option noopiter" to skip.)
Starting Gmin stepping
Gmin = 10
Gmin = 1.07374
Gmin = 0.115292
Gmin = 0.0123794
Gmin = 0.00132923
Gmin = 0.000142725
Gmin = 1.5325e-005
Gmin = 1.6455e-006
Gmin = 1.76685e-007
Gmin = 1.89714e-008
Gmin = 2.03704e-009
Gmin = 2.18725e-010
Gmin = 2.34854e-011
Gmin = 2.52173e-012
Gmin = 2.70769e-013
Gmin = 0
Gmin stepping succeeded in finding the operating point.


Date: Sat Oct 17 20:06:28 2020
Total elapsed time: 4.798 seconds.

tnom = 27
temp = 27
method = trap
totiter = 1170
traniter = 0
tranpoints = 0
accept = 0
rejected = 0
matrix size = 71
fillins = 71
solver = Normal
Thread vector: 27.4/10.1[3] 0.0/0.0[0] 4.8/5.3[1] 0.7/1.7[1]  2592/500
Matrix Compiler1:     665 opcodes  2.8/1.7/[1.2]
Matrix Compiler2: 8.09 KB object code size  1.0/1.3/[0.8]

